33
 energy: -64.177288123548 gnorm: 0.000211894482 xtb: 6.4.1 (afa7bdf)
C        -0.76665316144902    1.25529418246866   -0.26196993452165
N        -1.33229702078914    2.50980482217623   -0.24799052662689
N        -2.53969751459809    2.61191319579174    0.18585343808185
C        -3.15453465937302    3.82603690600995    0.11707930338888
C        -2.65254053159812    4.96820646714151   -0.54192367575796
O        -1.44330667009273    4.96136725114525   -1.16315130634611
C        -3.42441499173036    6.12752330960585   -0.58302443211704
O        -2.96615221407497    7.23640152479790   -1.22400618452197
C        -4.66677409579754    6.14902179662583    0.03908068266535
C        -5.18489657126909    5.04247948431025    0.69874749226945
C        -6.52378268448097    5.07485818756201    1.36753827863707
C        -4.42919653372976    3.87615864563473    0.73369154551778
O        -4.88967768397024    2.77395940937059    1.36138978796739
C        -1.48936456676186    0.06206389776690   -0.11493126657288
C        -0.83889489175202   -1.14729484872404   -0.21187821732151
O        -1.48108424437871   -2.34016698167399   -0.09258744073667
C         0.53840258945645   -1.18005145017164   -0.44754838864190
C         1.26800326427698   -0.01416589223880   -0.58631937222425
O         2.60405813150238   -0.01767255366104   -0.81219916478541
C         0.61868684918210    1.22774166908243   -0.49532206175641
O         1.34129207171298    2.36275914279223   -0.60931582610133
H        -1.09699834356040    4.04262890166403   -1.06638466804166
H        -2.09639868427457    7.02569831307516   -1.59159858419973
H        -5.23333125943150    7.06549614449760   -0.00606993946104
H        -7.14397190172098    4.25964600494702    0.99984200039414
H        -6.40742027259031    4.93569963598728    2.44124461800908
H        -7.02489352647168    6.02016581185838    1.18355376499306
H        -4.20583738369591    2.09061642920855    1.24806205808420
H        -2.55511040854475    0.11941966109520    0.05082050425240
H        -2.42124884529160   -2.19171168986615    0.06298003748034
H         1.02302047881217   -2.14212995450976   -0.52038628006818
H         2.92493074426079   -0.92653055876657   -0.85547649860791
H         0.74717441466825    3.11791283483322   -0.48548323638068
